Circuit: * Z:\home\butvinm\Dev\func-circuit\lt\lt\decoder_old.asc

Instance "m:x1:x43:4": Length shorter than recommended for a level 1 MOSFET.
Instance "m:x1:x43:4": Width narrower than recommended for a level 1 MOSFET.
Instance "m:x1:x43:3": Length shorter than recommended for a level 1 MOSFET.
Instance "m:x1:x43:3": Width narrower than recommended for a level 1 MOSFET.
Instance "m:x1:x44:4": Length shorter than recommended for a level 1 MOSFET.
Instance "m:x1:x44:4": Width narrower than recommended for a level 1 MOSFET.
Instance "m:x1:x44:3": Length shorter than recommended for a level 1 MOSFET.
Instance "m:x1:x44:3": Width narrower than recommended for a level 1 MOSFET.
Instance "m:x1:x42:4": Length shorter than recommended for a level 1 MOSFET.
Instance "m:x1:x42:4": Width narrower than recommended for a level 1 MOSFET.
Instance "m:x1:x42:3": Length shorter than recommended for a level 1 MOSFET.
Instance "m:x1:x42:3": Width narrower than recommended for a level 1 MOSFET.
Instance "m:x1:x41:4": Length shorter than recommended for a level 1 MOSFET.
Instance "m:x1:x41:4": Width narrower than recommended for a level 1 MOSFET.
Instance "m:x1:x41:3": Length shorter than recommended for a level 1 MOSFET.
Instance "m:x1:x41:3": Width narrower than recommended for a level 1 MOSFET.
Instance "m:x1:x40:4": Length shorter than recommended for a level 1 MOSFET.
Instance "m:x1:x40:4": Width narrower than recommended for a level 1 MOSFET.
Instance "m:x1:x40:3": Length shorter than recommended for a level 1 MOSFET.
Instance "m:x1:x40:3": Width narrower than recommended for a level 1 MOSFET.
Instance "m:x1:x39:4": Length shorter than recommended for a level 1 MOSFET.
Instance "m:x1:x39:4": Width narrower than recommended for a level 1 MOSFET.
Instance "m:x1:x39:3": Length shorter than recommended for a level 1 MOSFET.
Instance "m:x1:x39:3": Width narrower than recommended for a level 1 MOSFET.
Instance "m:x1:x38:4": Length shorter than recommended for a level 1 MOSFET.
Instance "m:x1:x38:4": Width narrower than recommended for a level 1 MOSFET.
Instance "m:x1:x38:3": Length shorter than recommended for a level 1 MOSFET.
Instance "m:x1:x38:3": Width narrower than recommended for a level 1 MOSFET.
Instance "m:x1:x37:4": Length shorter than recommended for a level 1 MOSFET.
Instance "m:x1:x37:4": Width narrower than recommended for a level 1 MOSFET.
Instance "m:x1:x37:3": Length shorter than recommended for a level 1 MOSFET.
Instance "m:x1:x37:3": Width narrower than recommended for a level 1 MOSFET.
Instance "m:x1:x36:4": Length shorter than recommended for a level 1 MOSFET.
Instance "m:x1:x36:4": Width narrower than recommended for a level 1 MOSFET.
Instance "m:x1:x36:3": Length shorter than recommended for a level 1 MOSFET.
Instance "m:x1:x36:3": Width narrower than recommended for a level 1 MOSFET.
Instance "m:x1:x35:4": Length shorter than recommended for a level 1 MOSFET.
Instance "m:x1:x35:4": Width narrower than recommended for a level 1 MOSFET.
Instance "m:x1:x35:3": Length shorter than recommended for a level 1 MOSFET.
Instance "m:x1:x35:3": Width narrower than recommended for a level 1 MOSFET.
Instance "m:x1:x34:4": Length shorter than recommended for a level 1 MOSFET.
Instance "m:x1:x34:4": Width narrower than recommended for a level 1 MOSFET.
Instance "m:x1:x34:3": Length shorter than recommended for a level 1 MOSFET.
Instance "m:x1:x34:3": Width narrower than recommended for a level 1 MOSFET.
Instance "m:x1:x33:4": Length shorter than recommended for a level 1 MOSFET.
Instance "m:x1:x33:4": Width narrower than recommended for a level 1 MOSFET.
Instance "m:x1:x33:3": Length shorter than recommended for a level 1 MOSFET.
Instance "m:x1:x33:3": Width narrower than recommended for a level 1 MOSFET.
Instance "m:x1:x32:4": Length shorter than recommended for a level 1 MOSFET.
Instance "m:x1:x32:4": Width narrower than recommended for a level 1 MOSFET.
Instance "m:x1:x32:3": Length shorter than recommended for a level 1 MOSFET.
Instance "m:x1:x32:3": Width narrower than recommended for a level 1 MOSFET.
Instance "m:x1:x31:4": Length shorter than recommended for a level 1 MOSFET.
Instance "m:x1:x31:4": Width narrower than recommended for a level 1 MOSFET.
Instance "m:x1:x31:3": Length shorter than recommended for a level 1 MOSFET.
Instance "m:x1:x31:3": Width narrower than recommended for a level 1 MOSFET.
Instance "m:x1:x30:4": Length shorter than recommended for a level 1 MOSFET.
Instance "m:x1:x30:4": Width narrower than recommended for a level 1 MOSFET.
Instance "m:x1:x30:3": Length shorter than recommended for a level 1 MOSFET.
Instance "m:x1:x30:3": Width narrower than recommended for a level 1 MOSFET.
Instance "m:x1:x29:4": Length shorter than recommended for a level 1 MOSFET.
Instance "m:x1:x29:4": Width narrower than recommended for a level 1 MOSFET.
Instance "m:x1:x29:3": Length shorter than recommended for a level 1 MOSFET.
Instance "m:x1:x29:3": Width narrower than recommended for a level 1 MOSFET.
Instance "m:x1:x24:4": Length shorter than recommended for a level 1 MOSFET.
Instance "m:x1:x24:4": Width narrower than recommended for a level 1 MOSFET.
Instance "m:x1:x24:3": Length shorter than recommended for a level 1 MOSFET.
Instance "m:x1:x24:3": Width narrower than recommended for a level 1 MOSFET.
Instance "m:x1:x23:4": Length shorter than recommended for a level 1 MOSFET.
Instance "m:x1:x23:4": Width narrower than recommended for a level 1 MOSFET.
Instance "m:x1:x23:3": Length shorter than recommended for a level 1 MOSFET.
Instance "m:x1:x23:3": Width narrower than recommended for a level 1 MOSFET.
Instance "m:x1:x22:4": Length shorter than recommended for a level 1 MOSFET.
Instance "m:x1:x22:4": Width narrower than recommended for a level 1 MOSFET.
Instance "m:x1:x22:3": Length shorter than recommended for a level 1 MOSFET.
Instance "m:x1:x22:3": Width narrower than recommended for a level 1 MOSFET.
Instance "m:x1:x21:4": Length shorter than recommended for a level 1 MOSFET.
Instance "m:x1:x21:4": Width narrower than recommended for a level 1 MOSFET.
Instance "m:x1:x21:3": Length shorter than recommended for a level 1 MOSFET.
Instance "m:x1:x21:3": Width narrower than recommended for a level 1 MOSFET.
Instance "m:x1:x20:4": Length shorter than recommended for a level 1 MOSFET.
Instance "m:x1:x20:4": Width narrower than recommended for a level 1 MOSFET.
Instance "m:x1:x20:3": Length shorter than recommended for a level 1 MOSFET.
Instance "m:x1:x20:3": Width narrower than recommended for a level 1 MOSFET.
Instance "m:x1:x19:4": Length shorter than recommended for a level 1 MOSFET.
Instance "m:x1:x19:4": Width narrower than recommended for a level 1 MOSFET.
Instance "m:x1:x19:3": Length shorter than recommended for a level 1 MOSFET.
Instance "m:x1:x19:3": Width narrower than recommended for a level 1 MOSFET.
Instance "m:x1:x18:4": Length shorter than recommended for a level 1 MOSFET.
Instance "m:x1:x18:4": Width narrower than recommended for a level 1 MOSFET.
Instance "m:x1:x18:3": Length shorter than recommended for a level 1 MOSFET.
Instance "m:x1:x18:3": Width narrower than recommended for a level 1 MOSFET.
Instance "m:x1:x17:4": Length shorter than recommended for a level 1 MOSFET.
Instance "m:x1:x17:4": Width narrower than recommended for a level 1 MOSFET.
Instance "m:x1:x17:3": Length shorter than recommended for a level 1 MOSFET.
Instance "m:x1:x17:3": Width narrower than recommended for a level 1 MOSFET.
Instance "m:x1:x16:4": Length shorter than recommended for a level 1 MOSFET.
Instance "m:x1:x16:4": Width narrower than recommended for a level 1 MOSFET.
Instance "m:x1:x16:3": Length shorter than recommended for a level 1 MOSFET.
Instance "m:x1:x16:3": Width narrower than recommended for a level 1 MOSFET.
Instance "m:x1:x15:4": Length shorter than recommended for a level 1 MOSFET.
Instance "m:x1:x15:4": Width narrower than recommended for a level 1 MOSFET.
Instance "m:x1:x15:3": Length shorter than recommended for a level 1 MOSFET.
Instance "m:x1:x15:3": Width narrower than recommended for a level 1 MOSFET.
Instance "m:x1:x14:4": Length shorter than recommended for a level 1 MOSFET.
Instance "m:x1:x14:4": Width narrower than recommended for a level 1 MOSFET.
Instance "m:x1:x14:3": Length shorter than recommended for a level 1 MOSFET.
Instance "m:x1:x14:3": Width narrower than recommended for a level 1 MOSFET.
Instance "m:x1:x13:4": Length shorter than recommended for a level 1 MOSFET.
Instance "m:x1:x13:4": Width narrower than recommended for a level 1 MOSFET.
Instance "m:x1:x13:3": Length shorter than recommended for a level 1 MOSFET.
Instance "m:x1:x13:3": Width narrower than recommended for a level 1 MOSFET.
Instance "m:x1:x12:4": Length shorter than recommended for a level 1 MOSFET.
Instance "m:x1:x12:4": Width narrower than recommended for a level 1 MOSFET.
Instance "m:x1:x12:3": Length shorter than recommended for a level 1 MOSFET.
Instance "m:x1:x12:3": Width narrower than recommended for a level 1 MOSFET.
Instance "m:x1:x11:4": Length shorter than recommended for a level 1 MOSFET.
Instance "m:x1:x11:4": Width narrower than recommended for a level 1 MOSFET.
Instance "m:x1:x11:3": Length shorter than recommended for a level 1 MOSFET.
Instance "m:x1:x11:3": Width narrower than recommended for a level 1 MOSFET.
Instance "m:x1:x10:4": Length shorter than recommended for a level 1 MOSFET.
Instance "m:x1:x10:4": Width narrower than recommended for a level 1 MOSFET.
Instance "m:x1:x10:3": Length shorter than recommended for a level 1 MOSFET.
Instance "m:x1:x10:3": Width narrower than recommended for a level 1 MOSFET.
Instance "m:x1:x9:4": Length shorter than recommended for a level 1 MOSFET.
Instance "m:x1:x9:4": Width narrower than recommended for a level 1 MOSFET.
Instance "m:x1:x9:3": Length shorter than recommended for a level 1 MOSFET.
Instance "m:x1:x9:3": Width narrower than recommended for a level 1 MOSFET.
Instance "m:x1:x8:4": Length shorter than recommended for a level 1 MOSFET.
Instance "m:x1:x8:4": Width narrower than recommended for a level 1 MOSFET.
Instance "m:x1:x8:3": Length shorter than recommended for a level 1 MOSFET.
Instance "m:x1:x8:3": Width narrower than recommended for a level 1 MOSFET.
Instance "m:x1:x7:4": Length shorter than recommended for a level 1 MOSFET.
Instance "m:x1:x7:4": Width narrower than recommended for a level 1 MOSFET.
Instance "m:x1:x7:3": Length shorter than recommended for a level 1 MOSFET.
Instance "m:x1:x7:3": Width narrower than recommended for a level 1 MOSFET.
Instance "m:x1:x6:4": Length shorter than recommended for a level 1 MOSFET.
Instance "m:x1:x6:4": Width narrower than recommended for a level 1 MOSFET.
Instance "m:x1:x6:3": Length shorter than recommended for a level 1 MOSFET.
Instance "m:x1:x6:3": Width narrower than recommended for a level 1 MOSFET.
Instance "m:x1:x5:4": Length shorter than recommended for a level 1 MOSFET.
Instance "m:x1:x5:4": Width narrower than recommended for a level 1 MOSFET.
Instance "m:x1:x5:3": Length shorter than recommended for a level 1 MOSFET.
Instance "m:x1:x5:3": Width narrower than recommended for a level 1 MOSFET.
Instance "m:x1:x4:4": Length shorter than recommended for a level 1 MOSFET.
Instance "m:x1:x4:4": Width narrower than recommended for a level 1 MOSFET.
Instance "m:x1:x4:3": Length shorter than recommended for a level 1 MOSFET.
Instance "m:x1:x4:3": Width narrower than recommended for a level 1 MOSFET.
Instance "m:x1:x3:4": Length shorter than recommended for a level 1 MOSFET.
Instance "m:x1:x3:4": Width narrower than recommended for a level 1 MOSFET.
Instance "m:x1:x3:3": Length shorter than recommended for a level 1 MOSFET.
Instance "m:x1:x3:3": Width narrower than recommended for a level 1 MOSFET.
Instance "m:x1:x2:4": Length shorter than recommended for a level 1 MOSFET.
Instance "m:x1:x2:4": Width narrower than recommended for a level 1 MOSFET.
Instance "m:x1:x2:3": Length shorter than recommended for a level 1 MOSFET.
Instance "m:x1:x2:3": Width narrower than recommended for a level 1 MOSFET.
Instance "m:x1:x1:4": Length shorter than recommended for a level 1 MOSFET.
Instance "m:x1:x1:4": Width narrower than recommended for a level 1 MOSFET.
Instance "m:x1:x1:3": Length shorter than recommended for a level 1 MOSFET.
Instance "m:x1:x1:3": Width narrower than recommended for a level 1 MOSFET.
Instance "m:x1:x28:4": Length shorter than recommended for a level 1 MOSFET.
Instance "m:x1:x28:4": Width narrower than recommended for a level 1 MOSFET.
Instance "m:x1:x28:3": Length shorter than recommended for a level 1 MOSFET.
Instance "m:x1:x28:3": Width narrower than recommended for a level 1 MOSFET.
Instance "m:x1:x27:4": Length shorter than recommended for a level 1 MOSFET.
Instance "m:x1:x27:4": Width narrower than recommended for a level 1 MOSFET.
Instance "m:x1:x27:3": Length shorter than recommended for a level 1 MOSFET.
Instance "m:x1:x27:3": Width narrower than recommended for a level 1 MOSFET.
Instance "m:x1:x26:4": Length shorter than recommended for a level 1 MOSFET.
Instance "m:x1:x26:4": Width narrower than recommended for a level 1 MOSFET.
Instance "m:x1:x26:3": Length shorter than recommended for a level 1 MOSFET.
Instance "m:x1:x26:3": Width narrower than recommended for a level 1 MOSFET.
Instance "m:x1:x25:4": Length shorter than recommended for a level 1 MOSFET.
Instance "m:x1:x25:4": Width narrower than recommended for a level 1 MOSFET.
Instance "m:x1:x25:3": Length shorter than recommended for a level 1 MOSFET.
Instance "m:x1:x25:3": Width narrower than recommended for a level 1 MOSFET.
Instance "m:x1:x43:2": Length shorter than recommended for a level 1 MOSFET.
Instance "m:x1:x43:2": Width narrower than recommended for a level 1 MOSFET.
Instance "m:x1:x43:1": Length shorter than recommended for a level 1 MOSFET.
Instance "m:x1:x43:1": Width narrower than recommended for a level 1 MOSFET.
Instance "m:x1:x44:2": Length shorter than recommended for a level 1 MOSFET.
Instance "m:x1:x44:2": Width narrower than recommended for a level 1 MOSFET.
Instance "m:x1:x44:1": Length shorter than recommended for a level 1 MOSFET.
Instance "m:x1:x44:1": Width narrower than recommended for a level 1 MOSFET.
Instance "m:x1:x42:2": Length shorter than recommended for a level 1 MOSFET.
Instance "m:x1:x42:2": Width narrower than recommended for a level 1 MOSFET.
Instance "m:x1:x42:1": Length shorter than recommended for a level 1 MOSFET.
Instance "m:x1:x42:1": Width narrower than recommended for a level 1 MOSFET.
Instance "m:x1:x41:2": Length shorter than recommended for a level 1 MOSFET.
Instance "m:x1:x41:2": Width narrower than recommended for a level 1 MOSFET.
Instance "m:x1:x41:1": Length shorter than recommended for a level 1 MOSFET.
Instance "m:x1:x41:1": Width narrower than recommended for a level 1 MOSFET.
Instance "m:x1:x40:2": Length shorter than recommended for a level 1 MOSFET.
Instance "m:x1:x40:2": Width narrower than recommended for a level 1 MOSFET.
Instance "m:x1:x40:1": Length shorter than recommended for a level 1 MOSFET.
Instance "m:x1:x40:1": Width narrower than recommended for a level 1 MOSFET.
Instance "m:x1:x39:2": Length shorter than recommended for a level 1 MOSFET.
Instance "m:x1:x39:2": Width narrower than recommended for a level 1 MOSFET.
Instance "m:x1:x39:1": Length shorter than recommended for a level 1 MOSFET.
Instance "m:x1:x39:1": Width narrower than recommended for a level 1 MOSFET.
Instance "m:x1:x38:2": Length shorter than recommended for a level 1 MOSFET.
Instance "m:x1:x38:2": Width narrower than recommended for a level 1 MOSFET.
Instance "m:x1:x38:1": Length shorter than recommended for a level 1 MOSFET.
Instance "m:x1:x38:1": Width narrower than recommended for a level 1 MOSFET.
Instance "m:x1:x37:2": Length shorter than recommended for a level 1 MOSFET.
Instance "m:x1:x37:2": Width narrower than recommended for a level 1 MOSFET.
Instance "m:x1:x37:1": Length shorter than recommended for a level 1 MOSFET.
Instance "m:x1:x37:1": Width narrower than recommended for a level 1 MOSFET.
Instance "m:x1:x36:2": Length shorter than recommended for a level 1 MOSFET.
Instance "m:x1:x36:2": Width narrower than recommended for a level 1 MOSFET.
Instance "m:x1:x36:1": Length shorter than recommended for a level 1 MOSFET.
Instance "m:x1:x36:1": Width narrower than recommended for a level 1 MOSFET.
Instance "m:x1:x35:2": Length shorter than recommended for a level 1 MOSFET.
Instance "m:x1:x35:2": Width narrower than recommended for a level 1 MOSFET.
Instance "m:x1:x35:1": Length shorter than recommended for a level 1 MOSFET.
Instance "m:x1:x35:1": Width narrower than recommended for a level 1 MOSFET.
Instance "m:x1:x34:2": Length shorter than recommended for a level 1 MOSFET.
Instance "m:x1:x34:2": Width narrower than recommended for a level 1 MOSFET.
Instance "m:x1:x34:1": Length shorter than recommended for a level 1 MOSFET.
Instance "m:x1:x34:1": Width narrower than recommended for a level 1 MOSFET.
Instance "m:x1:x33:2": Length shorter than recommended for a level 1 MOSFET.
Instance "m:x1:x33:2": Width narrower than recommended for a level 1 MOSFET.
Instance "m:x1:x33:1": Length shorter than recommended for a level 1 MOSFET.
Instance "m:x1:x33:1": Width narrower than recommended for a level 1 MOSFET.
Instance "m:x1:x32:2": Length shorter than recommended for a level 1 MOSFET.
Instance "m:x1:x32:2": Width narrower than recommended for a level 1 MOSFET.
Instance "m:x1:x32:1": Length shorter than recommended for a level 1 MOSFET.
Instance "m:x1:x32:1": Width narrower than recommended for a level 1 MOSFET.
Instance "m:x1:x31:2": Length shorter than recommended for a level 1 MOSFET.
Instance "m:x1:x31:2": Width narrower than recommended for a level 1 MOSFET.
Instance "m:x1:x31:1": Length shorter than recommended for a level 1 MOSFET.
Instance "m:x1:x31:1": Width narrower than recommended for a level 1 MOSFET.
Instance "m:x1:x30:2": Length shorter than recommended for a level 1 MOSFET.
Instance "m:x1:x30:2": Width narrower than recommended for a level 1 MOSFET.
Instance "m:x1:x30:1": Length shorter than recommended for a level 1 MOSFET.
Instance "m:x1:x30:1": Width narrower than recommended for a level 1 MOSFET.
Instance "m:x1:x29:2": Length shorter than recommended for a level 1 MOSFET.
Instance "m:x1:x29:2": Width narrower than recommended for a level 1 MOSFET.
Instance "m:x1:x29:1": Length shorter than recommended for a level 1 MOSFET.
Instance "m:x1:x29:1": Width narrower than recommended for a level 1 MOSFET.
Instance "m:x1:x24:2": Length shorter than recommended for a level 1 MOSFET.
Instance "m:x1:x24:2": Width narrower than recommended for a level 1 MOSFET.
Instance "m:x1:x24:1": Length shorter than recommended for a level 1 MOSFET.
Instance "m:x1:x24:1": Width narrower than recommended for a level 1 MOSFET.
Instance "m:x1:x23:2": Length shorter than recommended for a level 1 MOSFET.
Instance "m:x1:x23:2": Width narrower than recommended for a level 1 MOSFET.
Instance "m:x1:x23:1": Length shorter than recommended for a level 1 MOSFET.
Instance "m:x1:x23:1": Width narrower than recommended for a level 1 MOSFET.
Instance "m:x1:x22:2": Length shorter than recommended for a level 1 MOSFET.
Instance "m:x1:x22:2": Width narrower than recommended for a level 1 MOSFET.
Instance "m:x1:x22:1": Length shorter than recommended for a level 1 MOSFET.
Instance "m:x1:x22:1": Width narrower than recommended for a level 1 MOSFET.
Instance "m:x1:x21:2": Length shorter than recommended for a level 1 MOSFET.
Instance "m:x1:x21:2": Width narrower than recommended for a level 1 MOSFET.
Instance "m:x1:x21:1": Length shorter than recommended for a level 1 MOSFET.
Instance "m:x1:x21:1": Width narrower than recommended for a level 1 MOSFET.
Instance "m:x1:x20:2": Length shorter than recommended for a level 1 MOSFET.
Instance "m:x1:x20:2": Width narrower than recommended for a level 1 MOSFET.
Instance "m:x1:x20:1": Length shorter than recommended for a level 1 MOSFET.
Instance "m:x1:x20:1": Width narrower than recommended for a level 1 MOSFET.
Instance "m:x1:x19:2": Length shorter than recommended for a level 1 MOSFET.
Instance "m:x1:x19:2": Width narrower than recommended for a level 1 MOSFET.
Instance "m:x1:x19:1": Length shorter than recommended for a level 1 MOSFET.
Instance "m:x1:x19:1": Width narrower than recommended for a level 1 MOSFET.
Instance "m:x1:x18:2": Length shorter than recommended for a level 1 MOSFET.
Instance "m:x1:x18:2": Width narrower than recommended for a level 1 MOSFET.
Instance "m:x1:x18:1": Length shorter than recommended for a level 1 MOSFET.
Instance "m:x1:x18:1": Width narrower than recommended for a level 1 MOSFET.
Instance "m:x1:x17:2": Length shorter than recommended for a level 1 MOSFET.
Instance "m:x1:x17:2": Width narrower than recommended for a level 1 MOSFET.
Instance "m:x1:x17:1": Length shorter than recommended for a level 1 MOSFET.
Instance "m:x1:x17:1": Width narrower than recommended for a level 1 MOSFET.
Instance "m:x1:x16:2": Length shorter than recommended for a level 1 MOSFET.
Instance "m:x1:x16:2": Width narrower than recommended for a level 1 MOSFET.
Instance "m:x1:x16:1": Length shorter than recommended for a level 1 MOSFET.
Instance "m:x1:x16:1": Width narrower than recommended for a level 1 MOSFET.
Instance "m:x1:x15:2": Length shorter than recommended for a level 1 MOSFET.
Instance "m:x1:x15:2": Width narrower than recommended for a level 1 MOSFET.
Instance "m:x1:x15:1": Length shorter than recommended for a level 1 MOSFET.
Instance "m:x1:x15:1": Width narrower than recommended for a level 1 MOSFET.
Instance "m:x1:x14:2": Length shorter than recommended for a level 1 MOSFET.
Instance "m:x1:x14:2": Width narrower than recommended for a level 1 MOSFET.
Instance "m:x1:x14:1": Length shorter than recommended for a level 1 MOSFET.
Instance "m:x1:x14:1": Width narrower than recommended for a level 1 MOSFET.
Instance "m:x1:x13:2": Length shorter than recommended for a level 1 MOSFET.
Instance "m:x1:x13:2": Width narrower than recommended for a level 1 MOSFET.
Instance "m:x1:x13:1": Length shorter than recommended for a level 1 MOSFET.
Instance "m:x1:x13:1": Width narrower than recommended for a level 1 MOSFET.
Instance "m:x1:x12:2": Length shorter than recommended for a level 1 MOSFET.
Instance "m:x1:x12:2": Width narrower than recommended for a level 1 MOSFET.
Instance "m:x1:x12:1": Length shorter than recommended for a level 1 MOSFET.
Instance "m:x1:x12:1": Width narrower than recommended for a level 1 MOSFET.
Instance "m:x1:x11:2": Length shorter than recommended for a level 1 MOSFET.
Instance "m:x1:x11:2": Width narrower than recommended for a level 1 MOSFET.
Instance "m:x1:x11:1": Length shorter than recommended for a level 1 MOSFET.
Instance "m:x1:x11:1": Width narrower than recommended for a level 1 MOSFET.
Instance "m:x1:x10:2": Length shorter than recommended for a level 1 MOSFET.
Instance "m:x1:x10:2": Width narrower than recommended for a level 1 MOSFET.
Instance "m:x1:x10:1": Length shorter than recommended for a level 1 MOSFET.
Instance "m:x1:x10:1": Width narrower than recommended for a level 1 MOSFET.
Instance "m:x1:x9:2": Length shorter than recommended for a level 1 MOSFET.
Instance "m:x1:x9:2": Width narrower than recommended for a level 1 MOSFET.
Instance "m:x1:x9:1": Length shorter than recommended for a level 1 MOSFET.
Instance "m:x1:x9:1": Width narrower than recommended for a level 1 MOSFET.
Instance "m:x1:x8:2": Length shorter than recommended for a level 1 MOSFET.
Instance "m:x1:x8:2": Width narrower than recommended for a level 1 MOSFET.
Instance "m:x1:x8:1": Length shorter than recommended for a level 1 MOSFET.
Instance "m:x1:x8:1": Width narrower than recommended for a level 1 MOSFET.
Instance "m:x1:x7:2": Length shorter than recommended for a level 1 MOSFET.
Instance "m:x1:x7:2": Width narrower than recommended for a level 1 MOSFET.
Instance "m:x1:x7:1": Length shorter than recommended for a level 1 MOSFET.
Instance "m:x1:x7:1": Width narrower than recommended for a level 1 MOSFET.
Instance "m:x1:x6:2": Length shorter than recommended for a level 1 MOSFET.
Instance "m:x1:x6:2": Width narrower than recommended for a level 1 MOSFET.
Instance "m:x1:x6:1": Length shorter than recommended for a level 1 MOSFET.
Instance "m:x1:x6:1": Width narrower than recommended for a level 1 MOSFET.
Instance "m:x1:x5:2": Length shorter than recommended for a level 1 MOSFET.
Instance "m:x1:x5:2": Width narrower than recommended for a level 1 MOSFET.
Instance "m:x1:x5:1": Length shorter than recommended for a level 1 MOSFET.
Instance "m:x1:x5:1": Width narrower than recommended for a level 1 MOSFET.
Instance "m:x1:x4:2": Length shorter than recommended for a level 1 MOSFET.
Instance "m:x1:x4:2": Width narrower than recommended for a level 1 MOSFET.
Instance "m:x1:x4:1": Length shorter than recommended for a level 1 MOSFET.
Instance "m:x1:x4:1": Width narrower than recommended for a level 1 MOSFET.
Instance "m:x1:x3:2": Length shorter than recommended for a level 1 MOSFET.
Instance "m:x1:x3:2": Width narrower than recommended for a level 1 MOSFET.
Instance "m:x1:x3:1": Length shorter than recommended for a level 1 MOSFET.
Instance "m:x1:x3:1": Width narrower than recommended for a level 1 MOSFET.
Instance "m:x1:x2:2": Length shorter than recommended for a level 1 MOSFET.
Instance "m:x1:x2:2": Width narrower than recommended for a level 1 MOSFET.
Instance "m:x1:x2:1": Length shorter than recommended for a level 1 MOSFET.
Instance "m:x1:x2:1": Width narrower than recommended for a level 1 MOSFET.
Instance "m:x1:x1:2": Length shorter than recommended for a level 1 MOSFET.
Instance "m:x1:x1:2": Width narrower than recommended for a level 1 MOSFET.
Instance "m:x1:x1:1": Length shorter than recommended for a level 1 MOSFET.
Instance "m:x1:x1:1": Width narrower than recommended for a level 1 MOSFET.
Instance "m:x1:x28:2": Length shorter than recommended for a level 1 MOSFET.
Instance "m:x1:x28:2": Width narrower than recommended for a level 1 MOSFET.
Instance "m:x1:x28:1": Length shorter than recommended for a level 1 MOSFET.
Instance "m:x1:x28:1": Width narrower than recommended for a level 1 MOSFET.
Instance "m:x1:x27:2": Length shorter than recommended for a level 1 MOSFET.
Instance "m:x1:x27:2": Width narrower than recommended for a level 1 MOSFET.
Instance "m:x1:x27:1": Length shorter than recommended for a level 1 MOSFET.
Instance "m:x1:x27:1": Width narrower than recommended for a level 1 MOSFET.
Instance "m:x1:x26:2": Length shorter than recommended for a level 1 MOSFET.
Instance "m:x1:x26:2": Width narrower than recommended for a level 1 MOSFET.
Instance "m:x1:x26:1": Length shorter than recommended for a level 1 MOSFET.
Instance "m:x1:x26:1": Width narrower than recommended for a level 1 MOSFET.
Instance "m:x1:x25:2": Length shorter than recommended for a level 1 MOSFET.
Instance "m:x1:x25:2": Width narrower than recommended for a level 1 MOSFET.
Instance "m:x1:x25:1": Length shorter than recommended for a level 1 MOSFET.
Instance "m:x1:x25:1": Width narrower than recommended for a level 1 MOSFET.
Direct Newton iteration for .op point succeeded.

Date: Wed Oct 30 17:30:47 2024
Total elapsed time: 0.528 seconds.

tnom = 27
temp = 27
method = modified trap
totiter = 15048
traniter = 14999
tranpoints = 4402
accept = 4308
rejected = 94
matrix size = 96
fillins = 12
solver = Normal
Thread vector: 31.5/12.3[15] 14.9/6.2[13] 3.4/4.8[1] 0.3/2.5[1]  2592/500
Matrix Compiler1: 8.88 KB object code size  2.0/0.9/[0.6]
Matrix Compiler2: 10.96 KB object code size  0.8/1.6/[0.4]

