Circuit: * Z:\home\butvinm\Dev\func-circuit\lt\lt\task.asc

Instance "m:x43:4": Length shorter than recommended for a level 1 MOSFET.
Instance "m:x43:4": Width narrower than recommended for a level 1 MOSFET.
Instance "m:x43:3": Length shorter than recommended for a level 1 MOSFET.
Instance "m:x43:3": Width narrower than recommended for a level 1 MOSFET.
Instance "m:x44:4": Length shorter than recommended for a level 1 MOSFET.
Instance "m:x44:4": Width narrower than recommended for a level 1 MOSFET.
Instance "m:x44:3": Length shorter than recommended for a level 1 MOSFET.
Instance "m:x44:3": Width narrower than recommended for a level 1 MOSFET.
Instance "m:x42:4": Length shorter than recommended for a level 1 MOSFET.
Instance "m:x42:4": Width narrower than recommended for a level 1 MOSFET.
Instance "m:x42:3": Length shorter than recommended for a level 1 MOSFET.
Instance "m:x42:3": Width narrower than recommended for a level 1 MOSFET.
Instance "m:x41:4": Length shorter than recommended for a level 1 MOSFET.
Instance "m:x41:4": Width narrower than recommended for a level 1 MOSFET.
Instance "m:x41:3": Length shorter than recommended for a level 1 MOSFET.
Instance "m:x41:3": Width narrower than recommended for a level 1 MOSFET.
Instance "m:x40:4": Length shorter than recommended for a level 1 MOSFET.
Instance "m:x40:4": Width narrower than recommended for a level 1 MOSFET.
Instance "m:x40:3": Length shorter than recommended for a level 1 MOSFET.
Instance "m:x40:3": Width narrower than recommended for a level 1 MOSFET.
Instance "m:x39:4": Length shorter than recommended for a level 1 MOSFET.
Instance "m:x39:4": Width narrower than recommended for a level 1 MOSFET.
Instance "m:x39:3": Length shorter than recommended for a level 1 MOSFET.
Instance "m:x39:3": Width narrower than recommended for a level 1 MOSFET.
Instance "m:x38:4": Length shorter than recommended for a level 1 MOSFET.
Instance "m:x38:4": Width narrower than recommended for a level 1 MOSFET.
Instance "m:x38:3": Length shorter than recommended for a level 1 MOSFET.
Instance "m:x38:3": Width narrower than recommended for a level 1 MOSFET.
Instance "m:x37:4": Length shorter than recommended for a level 1 MOSFET.
Instance "m:x37:4": Width narrower than recommended for a level 1 MOSFET.
Instance "m:x37:3": Length shorter than recommended for a level 1 MOSFET.
Instance "m:x37:3": Width narrower than recommended for a level 1 MOSFET.
Instance "m:x36:4": Length shorter than recommended for a level 1 MOSFET.
Instance "m:x36:4": Width narrower than recommended for a level 1 MOSFET.
Instance "m:x36:3": Length shorter than recommended for a level 1 MOSFET.
Instance "m:x36:3": Width narrower than recommended for a level 1 MOSFET.
Instance "m:x35:4": Length shorter than recommended for a level 1 MOSFET.
Instance "m:x35:4": Width narrower than recommended for a level 1 MOSFET.
Instance "m:x35:3": Length shorter than recommended for a level 1 MOSFET.
Instance "m:x35:3": Width narrower than recommended for a level 1 MOSFET.
Instance "m:x34:4": Length shorter than recommended for a level 1 MOSFET.
Instance "m:x34:4": Width narrower than recommended for a level 1 MOSFET.
Instance "m:x34:3": Length shorter than recommended for a level 1 MOSFET.
Instance "m:x34:3": Width narrower than recommended for a level 1 MOSFET.
Instance "m:x33:4": Length shorter than recommended for a level 1 MOSFET.
Instance "m:x33:4": Width narrower than recommended for a level 1 MOSFET.
Instance "m:x33:3": Length shorter than recommended for a level 1 MOSFET.
Instance "m:x33:3": Width narrower than recommended for a level 1 MOSFET.
Instance "m:x32:4": Length shorter than recommended for a level 1 MOSFET.
Instance "m:x32:4": Width narrower than recommended for a level 1 MOSFET.
Instance "m:x32:3": Length shorter than recommended for a level 1 MOSFET.
Instance "m:x32:3": Width narrower than recommended for a level 1 MOSFET.
Instance "m:x31:4": Length shorter than recommended for a level 1 MOSFET.
Instance "m:x31:4": Width narrower than recommended for a level 1 MOSFET.
Instance "m:x31:3": Length shorter than recommended for a level 1 MOSFET.
Instance "m:x31:3": Width narrower than recommended for a level 1 MOSFET.
Instance "m:x30:4": Length shorter than recommended for a level 1 MOSFET.
Instance "m:x30:4": Width narrower than recommended for a level 1 MOSFET.
Instance "m:x30:3": Length shorter than recommended for a level 1 MOSFET.
Instance "m:x30:3": Width narrower than recommended for a level 1 MOSFET.
Instance "m:x29:4": Length shorter than recommended for a level 1 MOSFET.
Instance "m:x29:4": Width narrower than recommended for a level 1 MOSFET.
Instance "m:x29:3": Length shorter than recommended for a level 1 MOSFET.
Instance "m:x29:3": Width narrower than recommended for a level 1 MOSFET.
Instance "m:x24:4": Length shorter than recommended for a level 1 MOSFET.
Instance "m:x24:4": Width narrower than recommended for a level 1 MOSFET.
Instance "m:x24:3": Length shorter than recommended for a level 1 MOSFET.
Instance "m:x24:3": Width narrower than recommended for a level 1 MOSFET.
Instance "m:x23:4": Length shorter than recommended for a level 1 MOSFET.
Instance "m:x23:4": Width narrower than recommended for a level 1 MOSFET.
Instance "m:x23:3": Length shorter than recommended for a level 1 MOSFET.
Instance "m:x23:3": Width narrower than recommended for a level 1 MOSFET.
Instance "m:x22:4": Length shorter than recommended for a level 1 MOSFET.
Instance "m:x22:4": Width narrower than recommended for a level 1 MOSFET.
Instance "m:x22:3": Length shorter than recommended for a level 1 MOSFET.
Instance "m:x22:3": Width narrower than recommended for a level 1 MOSFET.
Instance "m:x21:4": Length shorter than recommended for a level 1 MOSFET.
Instance "m:x21:4": Width narrower than recommended for a level 1 MOSFET.
Instance "m:x21:3": Length shorter than recommended for a level 1 MOSFET.
Instance "m:x21:3": Width narrower than recommended for a level 1 MOSFET.
Instance "m:x20:4": Length shorter than recommended for a level 1 MOSFET.
Instance "m:x20:4": Width narrower than recommended for a level 1 MOSFET.
Instance "m:x20:3": Length shorter than recommended for a level 1 MOSFET.
Instance "m:x20:3": Width narrower than recommended for a level 1 MOSFET.
Instance "m:x19:4": Length shorter than recommended for a level 1 MOSFET.
Instance "m:x19:4": Width narrower than recommended for a level 1 MOSFET.
Instance "m:x19:3": Length shorter than recommended for a level 1 MOSFET.
Instance "m:x19:3": Width narrower than recommended for a level 1 MOSFET.
Instance "m:x18:4": Length shorter than recommended for a level 1 MOSFET.
Instance "m:x18:4": Width narrower than recommended for a level 1 MOSFET.
Instance "m:x18:3": Length shorter than recommended for a level 1 MOSFET.
Instance "m:x18:3": Width narrower than recommended for a level 1 MOSFET.
Instance "m:x17:4": Length shorter than recommended for a level 1 MOSFET.
Instance "m:x17:4": Width narrower than recommended for a level 1 MOSFET.
Instance "m:x17:3": Length shorter than recommended for a level 1 MOSFET.
Instance "m:x17:3": Width narrower than recommended for a level 1 MOSFET.
Instance "m:x16:4": Length shorter than recommended for a level 1 MOSFET.
Instance "m:x16:4": Width narrower than recommended for a level 1 MOSFET.
Instance "m:x16:3": Length shorter than recommended for a level 1 MOSFET.
Instance "m:x16:3": Width narrower than recommended for a level 1 MOSFET.
Instance "m:x15:4": Length shorter than recommended for a level 1 MOSFET.
Instance "m:x15:4": Width narrower than recommended for a level 1 MOSFET.
Instance "m:x15:3": Length shorter than recommended for a level 1 MOSFET.
Instance "m:x15:3": Width narrower than recommended for a level 1 MOSFET.
Instance "m:x14:4": Length shorter than recommended for a level 1 MOSFET.
Instance "m:x14:4": Width narrower than recommended for a level 1 MOSFET.
Instance "m:x14:3": Length shorter than recommended for a level 1 MOSFET.
Instance "m:x14:3": Width narrower than recommended for a level 1 MOSFET.
Instance "m:x13:4": Length shorter than recommended for a level 1 MOSFET.
Instance "m:x13:4": Width narrower than recommended for a level 1 MOSFET.
Instance "m:x13:3": Length shorter than recommended for a level 1 MOSFET.
Instance "m:x13:3": Width narrower than recommended for a level 1 MOSFET.
Instance "m:x12:4": Length shorter than recommended for a level 1 MOSFET.
Instance "m:x12:4": Width narrower than recommended for a level 1 MOSFET.
Instance "m:x12:3": Length shorter than recommended for a level 1 MOSFET.
Instance "m:x12:3": Width narrower than recommended for a level 1 MOSFET.
Instance "m:x11:4": Length shorter than recommended for a level 1 MOSFET.
Instance "m:x11:4": Width narrower than recommended for a level 1 MOSFET.
Instance "m:x11:3": Length shorter than recommended for a level 1 MOSFET.
Instance "m:x11:3": Width narrower than recommended for a level 1 MOSFET.
Instance "m:x10:4": Length shorter than recommended for a level 1 MOSFET.
Instance "m:x10:4": Width narrower than recommended for a level 1 MOSFET.
Instance "m:x10:3": Length shorter than recommended for a level 1 MOSFET.
Instance "m:x10:3": Width narrower than recommended for a level 1 MOSFET.
Instance "m:x9:4": Length shorter than recommended for a level 1 MOSFET.
Instance "m:x9:4": Width narrower than recommended for a level 1 MOSFET.
Instance "m:x9:3": Length shorter than recommended for a level 1 MOSFET.
Instance "m:x9:3": Width narrower than recommended for a level 1 MOSFET.
Instance "m:x8:4": Length shorter than recommended for a level 1 MOSFET.
Instance "m:x8:4": Width narrower than recommended for a level 1 MOSFET.
Instance "m:x8:3": Length shorter than recommended for a level 1 MOSFET.
Instance "m:x8:3": Width narrower than recommended for a level 1 MOSFET.
Instance "m:x7:4": Length shorter than recommended for a level 1 MOSFET.
Instance "m:x7:4": Width narrower than recommended for a level 1 MOSFET.
Instance "m:x7:3": Length shorter than recommended for a level 1 MOSFET.
Instance "m:x7:3": Width narrower than recommended for a level 1 MOSFET.
Instance "m:x6:4": Length shorter than recommended for a level 1 MOSFET.
Instance "m:x6:4": Width narrower than recommended for a level 1 MOSFET.
Instance "m:x6:3": Length shorter than recommended for a level 1 MOSFET.
Instance "m:x6:3": Width narrower than recommended for a level 1 MOSFET.
Instance "m:x5:4": Length shorter than recommended for a level 1 MOSFET.
Instance "m:x5:4": Width narrower than recommended for a level 1 MOSFET.
Instance "m:x5:3": Length shorter than recommended for a level 1 MOSFET.
Instance "m:x5:3": Width narrower than recommended for a level 1 MOSFET.
Instance "m:x4:4": Length shorter than recommended for a level 1 MOSFET.
Instance "m:x4:4": Width narrower than recommended for a level 1 MOSFET.
Instance "m:x4:3": Length shorter than recommended for a level 1 MOSFET.
Instance "m:x4:3": Width narrower than recommended for a level 1 MOSFET.
Instance "m:x3:4": Length shorter than recommended for a level 1 MOSFET.
Instance "m:x3:4": Width narrower than recommended for a level 1 MOSFET.
Instance "m:x3:3": Length shorter than recommended for a level 1 MOSFET.
Instance "m:x3:3": Width narrower than recommended for a level 1 MOSFET.
Instance "m:x2:4": Length shorter than recommended for a level 1 MOSFET.
Instance "m:x2:4": Width narrower than recommended for a level 1 MOSFET.
Instance "m:x2:3": Length shorter than recommended for a level 1 MOSFET.
Instance "m:x2:3": Width narrower than recommended for a level 1 MOSFET.
Instance "m:x1:4": Length shorter than recommended for a level 1 MOSFET.
Instance "m:x1:4": Width narrower than recommended for a level 1 MOSFET.
Instance "m:x1:3": Length shorter than recommended for a level 1 MOSFET.
Instance "m:x1:3": Width narrower than recommended for a level 1 MOSFET.
Instance "m:x28:4": Length shorter than recommended for a level 1 MOSFET.
Instance "m:x28:4": Width narrower than recommended for a level 1 MOSFET.
Instance "m:x28:3": Length shorter than recommended for a level 1 MOSFET.
Instance "m:x28:3": Width narrower than recommended for a level 1 MOSFET.
Instance "m:x27:4": Length shorter than recommended for a level 1 MOSFET.
Instance "m:x27:4": Width narrower than recommended for a level 1 MOSFET.
Instance "m:x27:3": Length shorter than recommended for a level 1 MOSFET.
Instance "m:x27:3": Width narrower than recommended for a level 1 MOSFET.
Instance "m:x26:4": Length shorter than recommended for a level 1 MOSFET.
Instance "m:x26:4": Width narrower than recommended for a level 1 MOSFET.
Instance "m:x26:3": Length shorter than recommended for a level 1 MOSFET.
Instance "m:x26:3": Width narrower than recommended for a level 1 MOSFET.
Instance "m:x25:4": Length shorter than recommended for a level 1 MOSFET.
Instance "m:x25:4": Width narrower than recommended for a level 1 MOSFET.
Instance "m:x25:3": Length shorter than recommended for a level 1 MOSFET.
Instance "m:x25:3": Width narrower than recommended for a level 1 MOSFET.
Instance "m:x43:2": Length shorter than recommended for a level 1 MOSFET.
Instance "m:x43:2": Width narrower than recommended for a level 1 MOSFET.
Instance "m:x43:1": Length shorter than recommended for a level 1 MOSFET.
Instance "m:x43:1": Width narrower than recommended for a level 1 MOSFET.
Instance "m:x44:2": Length shorter than recommended for a level 1 MOSFET.
Instance "m:x44:2": Width narrower than recommended for a level 1 MOSFET.
Instance "m:x44:1": Length shorter than recommended for a level 1 MOSFET.
Instance "m:x44:1": Width narrower than recommended for a level 1 MOSFET.
Instance "m:x42:2": Length shorter than recommended for a level 1 MOSFET.
Instance "m:x42:2": Width narrower than recommended for a level 1 MOSFET.
Instance "m:x42:1": Length shorter than recommended for a level 1 MOSFET.
Instance "m:x42:1": Width narrower than recommended for a level 1 MOSFET.
Instance "m:x41:2": Length shorter than recommended for a level 1 MOSFET.
Instance "m:x41:2": Width narrower than recommended for a level 1 MOSFET.
Instance "m:x41:1": Length shorter than recommended for a level 1 MOSFET.
Instance "m:x41:1": Width narrower than recommended for a level 1 MOSFET.
Instance "m:x40:2": Length shorter than recommended for a level 1 MOSFET.
Instance "m:x40:2": Width narrower than recommended for a level 1 MOSFET.
Instance "m:x40:1": Length shorter than recommended for a level 1 MOSFET.
Instance "m:x40:1": Width narrower than recommended for a level 1 MOSFET.
Instance "m:x39:2": Length shorter than recommended for a level 1 MOSFET.
Instance "m:x39:2": Width narrower than recommended for a level 1 MOSFET.
Instance "m:x39:1": Length shorter than recommended for a level 1 MOSFET.
Instance "m:x39:1": Width narrower than recommended for a level 1 MOSFET.
Instance "m:x38:2": Length shorter than recommended for a level 1 MOSFET.
Instance "m:x38:2": Width narrower than recommended for a level 1 MOSFET.
Instance "m:x38:1": Length shorter than recommended for a level 1 MOSFET.
Instance "m:x38:1": Width narrower than recommended for a level 1 MOSFET.
Instance "m:x37:2": Length shorter than recommended for a level 1 MOSFET.
Instance "m:x37:2": Width narrower than recommended for a level 1 MOSFET.
Instance "m:x37:1": Length shorter than recommended for a level 1 MOSFET.
Instance "m:x37:1": Width narrower than recommended for a level 1 MOSFET.
Instance "m:x36:2": Length shorter than recommended for a level 1 MOSFET.
Instance "m:x36:2": Width narrower than recommended for a level 1 MOSFET.
Instance "m:x36:1": Length shorter than recommended for a level 1 MOSFET.
Instance "m:x36:1": Width narrower than recommended for a level 1 MOSFET.
Instance "m:x35:2": Length shorter than recommended for a level 1 MOSFET.
Instance "m:x35:2": Width narrower than recommended for a level 1 MOSFET.
Instance "m:x35:1": Length shorter than recommended for a level 1 MOSFET.
Instance "m:x35:1": Width narrower than recommended for a level 1 MOSFET.
Instance "m:x34:2": Length shorter than recommended for a level 1 MOSFET.
Instance "m:x34:2": Width narrower than recommended for a level 1 MOSFET.
Instance "m:x34:1": Length shorter than recommended for a level 1 MOSFET.
Instance "m:x34:1": Width narrower than recommended for a level 1 MOSFET.
Instance "m:x33:2": Length shorter than recommended for a level 1 MOSFET.
Instance "m:x33:2": Width narrower than recommended for a level 1 MOSFET.
Instance "m:x33:1": Length shorter than recommended for a level 1 MOSFET.
Instance "m:x33:1": Width narrower than recommended for a level 1 MOSFET.
Instance "m:x32:2": Length shorter than recommended for a level 1 MOSFET.
Instance "m:x32:2": Width narrower than recommended for a level 1 MOSFET.
Instance "m:x32:1": Length shorter than recommended for a level 1 MOSFET.
Instance "m:x32:1": Width narrower than recommended for a level 1 MOSFET.
Instance "m:x31:2": Length shorter than recommended for a level 1 MOSFET.
Instance "m:x31:2": Width narrower than recommended for a level 1 MOSFET.
Instance "m:x31:1": Length shorter than recommended for a level 1 MOSFET.
Instance "m:x31:1": Width narrower than recommended for a level 1 MOSFET.
Instance "m:x30:2": Length shorter than recommended for a level 1 MOSFET.
Instance "m:x30:2": Width narrower than recommended for a level 1 MOSFET.
Instance "m:x30:1": Length shorter than recommended for a level 1 MOSFET.
Instance "m:x30:1": Width narrower than recommended for a level 1 MOSFET.
Instance "m:x29:2": Length shorter than recommended for a level 1 MOSFET.
Instance "m:x29:2": Width narrower than recommended for a level 1 MOSFET.
Instance "m:x29:1": Length shorter than recommended for a level 1 MOSFET.
Instance "m:x29:1": Width narrower than recommended for a level 1 MOSFET.
Instance "m:x24:2": Length shorter than recommended for a level 1 MOSFET.
Instance "m:x24:2": Width narrower than recommended for a level 1 MOSFET.
Instance "m:x24:1": Length shorter than recommended for a level 1 MOSFET.
Instance "m:x24:1": Width narrower than recommended for a level 1 MOSFET.
Instance "m:x23:2": Length shorter than recommended for a level 1 MOSFET.
Instance "m:x23:2": Width narrower than recommended for a level 1 MOSFET.
Instance "m:x23:1": Length shorter than recommended for a level 1 MOSFET.
Instance "m:x23:1": Width narrower than recommended for a level 1 MOSFET.
Instance "m:x22:2": Length shorter than recommended for a level 1 MOSFET.
Instance "m:x22:2": Width narrower than recommended for a level 1 MOSFET.
Instance "m:x22:1": Length shorter than recommended for a level 1 MOSFET.
Instance "m:x22:1": Width narrower than recommended for a level 1 MOSFET.
Instance "m:x21:2": Length shorter than recommended for a level 1 MOSFET.
Instance "m:x21:2": Width narrower than recommended for a level 1 MOSFET.
Instance "m:x21:1": Length shorter than recommended for a level 1 MOSFET.
Instance "m:x21:1": Width narrower than recommended for a level 1 MOSFET.
Instance "m:x20:2": Length shorter than recommended for a level 1 MOSFET.
Instance "m:x20:2": Width narrower than recommended for a level 1 MOSFET.
Instance "m:x20:1": Length shorter than recommended for a level 1 MOSFET.
Instance "m:x20:1": Width narrower than recommended for a level 1 MOSFET.
Instance "m:x19:2": Length shorter than recommended for a level 1 MOSFET.
Instance "m:x19:2": Width narrower than recommended for a level 1 MOSFET.
Instance "m:x19:1": Length shorter than recommended for a level 1 MOSFET.
Instance "m:x19:1": Width narrower than recommended for a level 1 MOSFET.
Instance "m:x18:2": Length shorter than recommended for a level 1 MOSFET.
Instance "m:x18:2": Width narrower than recommended for a level 1 MOSFET.
Instance "m:x18:1": Length shorter than recommended for a level 1 MOSFET.
Instance "m:x18:1": Width narrower than recommended for a level 1 MOSFET.
Instance "m:x17:2": Length shorter than recommended for a level 1 MOSFET.
Instance "m:x17:2": Width narrower than recommended for a level 1 MOSFET.
Instance "m:x17:1": Length shorter than recommended for a level 1 MOSFET.
Instance "m:x17:1": Width narrower than recommended for a level 1 MOSFET.
Instance "m:x16:2": Length shorter than recommended for a level 1 MOSFET.
Instance "m:x16:2": Width narrower than recommended for a level 1 MOSFET.
Instance "m:x16:1": Length shorter than recommended for a level 1 MOSFET.
Instance "m:x16:1": Width narrower than recommended for a level 1 MOSFET.
Instance "m:x15:2": Length shorter than recommended for a level 1 MOSFET.
Instance "m:x15:2": Width narrower than recommended for a level 1 MOSFET.
Instance "m:x15:1": Length shorter than recommended for a level 1 MOSFET.
Instance "m:x15:1": Width narrower than recommended for a level 1 MOSFET.
Instance "m:x14:2": Length shorter than recommended for a level 1 MOSFET.
Instance "m:x14:2": Width narrower than recommended for a level 1 MOSFET.
Instance "m:x14:1": Length shorter than recommended for a level 1 MOSFET.
Instance "m:x14:1": Width narrower than recommended for a level 1 MOSFET.
Instance "m:x13:2": Length shorter than recommended for a level 1 MOSFET.
Instance "m:x13:2": Width narrower than recommended for a level 1 MOSFET.
Instance "m:x13:1": Length shorter than recommended for a level 1 MOSFET.
Instance "m:x13:1": Width narrower than recommended for a level 1 MOSFET.
Instance "m:x12:2": Length shorter than recommended for a level 1 MOSFET.
Instance "m:x12:2": Width narrower than recommended for a level 1 MOSFET.
Instance "m:x12:1": Length shorter than recommended for a level 1 MOSFET.
Instance "m:x12:1": Width narrower than recommended for a level 1 MOSFET.
Instance "m:x11:2": Length shorter than recommended for a level 1 MOSFET.
Instance "m:x11:2": Width narrower than recommended for a level 1 MOSFET.
Instance "m:x11:1": Length shorter than recommended for a level 1 MOSFET.
Instance "m:x11:1": Width narrower than recommended for a level 1 MOSFET.
Instance "m:x10:2": Length shorter than recommended for a level 1 MOSFET.
Instance "m:x10:2": Width narrower than recommended for a level 1 MOSFET.
Instance "m:x10:1": Length shorter than recommended for a level 1 MOSFET.
Instance "m:x10:1": Width narrower than recommended for a level 1 MOSFET.
Instance "m:x9:2": Length shorter than recommended for a level 1 MOSFET.
Instance "m:x9:2": Width narrower than recommended for a level 1 MOSFET.
Instance "m:x9:1": Length shorter than recommended for a level 1 MOSFET.
Instance "m:x9:1": Width narrower than recommended for a level 1 MOSFET.
Instance "m:x8:2": Length shorter than recommended for a level 1 MOSFET.
Instance "m:x8:2": Width narrower than recommended for a level 1 MOSFET.
Instance "m:x8:1": Length shorter than recommended for a level 1 MOSFET.
Instance "m:x8:1": Width narrower than recommended for a level 1 MOSFET.
Instance "m:x7:2": Length shorter than recommended for a level 1 MOSFET.
Instance "m:x7:2": Width narrower than recommended for a level 1 MOSFET.
Instance "m:x7:1": Length shorter than recommended for a level 1 MOSFET.
Instance "m:x7:1": Width narrower than recommended for a level 1 MOSFET.
Instance "m:x6:2": Length shorter than recommended for a level 1 MOSFET.
Instance "m:x6:2": Width narrower than recommended for a level 1 MOSFET.
Instance "m:x6:1": Length shorter than recommended for a level 1 MOSFET.
Instance "m:x6:1": Width narrower than recommended for a level 1 MOSFET.
Instance "m:x5:2": Length shorter than recommended for a level 1 MOSFET.
Instance "m:x5:2": Width narrower than recommended for a level 1 MOSFET.
Instance "m:x5:1": Length shorter than recommended for a level 1 MOSFET.
Instance "m:x5:1": Width narrower than recommended for a level 1 MOSFET.
Instance "m:x4:2": Length shorter than recommended for a level 1 MOSFET.
Instance "m:x4:2": Width narrower than recommended for a level 1 MOSFET.
Instance "m:x4:1": Length shorter than recommended for a level 1 MOSFET.
Instance "m:x4:1": Width narrower than recommended for a level 1 MOSFET.
Instance "m:x3:2": Length shorter than recommended for a level 1 MOSFET.
Instance "m:x3:2": Width narrower than recommended for a level 1 MOSFET.
Instance "m:x3:1": Length shorter than recommended for a level 1 MOSFET.
Instance "m:x3:1": Width narrower than recommended for a level 1 MOSFET.
Instance "m:x2:2": Length shorter than recommended for a level 1 MOSFET.
Instance "m:x2:2": Width narrower than recommended for a level 1 MOSFET.
Instance "m:x2:1": Length shorter than recommended for a level 1 MOSFET.
Instance "m:x2:1": Width narrower than recommended for a level 1 MOSFET.
Instance "m:x1:2": Length shorter than recommended for a level 1 MOSFET.
Instance "m:x1:2": Width narrower than recommended for a level 1 MOSFET.
Instance "m:x1:1": Length shorter than recommended for a level 1 MOSFET.
Instance "m:x1:1": Width narrower than recommended for a level 1 MOSFET.
Instance "m:x28:2": Length shorter than recommended for a level 1 MOSFET.
Instance "m:x28:2": Width narrower than recommended for a level 1 MOSFET.
Instance "m:x28:1": Length shorter than recommended for a level 1 MOSFET.
Instance "m:x28:1": Width narrower than recommended for a level 1 MOSFET.
Instance "m:x27:2": Length shorter than recommended for a level 1 MOSFET.
Instance "m:x27:2": Width narrower than recommended for a level 1 MOSFET.
Instance "m:x27:1": Length shorter than recommended for a level 1 MOSFET.
Instance "m:x27:1": Width narrower than recommended for a level 1 MOSFET.
Instance "m:x26:2": Length shorter than recommended for a level 1 MOSFET.
Instance "m:x26:2": Width narrower than recommended for a level 1 MOSFET.
Instance "m:x26:1": Length shorter than recommended for a level 1 MOSFET.
Instance "m:x26:1": Width narrower than recommended for a level 1 MOSFET.
Instance "m:x25:2": Length shorter than recommended for a level 1 MOSFET.
Instance "m:x25:2": Width narrower than recommended for a level 1 MOSFET.
Instance "m:x25:1": Length shorter than recommended for a level 1 MOSFET.
Instance "m:x25:1": Width narrower than recommended for a level 1 MOSFET.
Direct Newton iteration for .op point succeeded.

Date: Wed Oct 30 16:49:56 2024
Total elapsed time: 0.262 seconds.

tnom = 27
temp = 27
method = modified trap
totiter = 4316
traniter = 4267
tranpoints = 1158
accept = 978
rejected = 180
matrix size = 97
fillins = 12
solver = Normal
Thread vector: 30.8/8.2[16] 15.2/5.4[16] 4.3/7.1[1] 0.3/3.2[1]  2592/500
Matrix Compiler1:     511 opcodes  2.1/[0.9]/0.9
Matrix Compiler2: off
